
OS:Version,
  {0f20289d-c9f3-4775-8548-e6b6a77e899a}, !- Handle
  2.5.0;                                  !- Version Identifier

OS:WeatherFile,
  {f3d36bb9-ba70-42b0-b854-a2bbd00d06c9}, !- Handle
  STUTTGART,                              !- City
  -,                                      !- State Province Region
  DEU,                                    !- Country
  IWEC Data,                              !- Data Source
  107380,                                 !- WMO Number
  48.68,                                  !- Latitude {deg}
  9.22,                                   !- Longitude {deg}
  1,                                      !- Time Zone {hr}
  419,                                    !- Elevation {m}
  file:///C:/Lokale Ablage/git_GenSimEPlus_gitgui/Wetter/DEU_Stuttgart.107380_IWEC.epw, !- Url
  1828C7C7;                               !- Checksum

OS:Site,
  {a6a01d25-c72a-42b0-ad3d-906ee79700db}, !- Handle
  STUTTGART_-_DEU,                        !- Name
  48.68,                                  !- Latitude {deg}
  9.22,                                   !- Longitude {deg}
  1,                                      !- Time Zone {hr}
  419,                                    !- Elevation {m}
  ;                                       !- Terrain

OS:Building,
  {1606222f-000b-4b23-80af-6ca8b9c9439a}, !- Handle
  Building 1,                             !- Name
  ,                                       !- Building Sector Type
  0,                                      !- North Axis {deg}
  ,                                       !- Nominal Floor to Floor Height {m}
  ,                                       !- Space Type Name
  ,                                       !- Default Construction Set Name
  ;                                       !- Default Schedule Set Name

OS:Output:Meter,
  {e93b2391-ed6c-43ee-be88-37e546418360}, !- Handle
  DistrictHeating:Facility,               !- Name
  Timestep;                               !- Reporting Frequency

OS:Output:Meter,
  {0b58f2fc-2d8f-42a8-b0f1-37ae01347608}, !- Handle
  DistrictCooling:Facility,               !- Name
  Timestep;                               !- Reporting Frequency

OS:Output:Meter,
  {decd8928-efbd-4e07-bcbd-de0d1992a12d}, !- Handle
  InteriorLights:Electricity,             !- Name
  Timestep;                               !- Reporting Frequency

OS:Output:Meter,
  {e1b1604b-8421-492e-a80f-28724c978593}, !- Handle
  InteriorEquipment:Electricity,          !- Name
  Timestep;                               !- Reporting Frequency

OS:Output:Meter,
  {29f3d4b7-5d3d-44a5-bed4-5b60cd9fa26a}, !- Handle
  ElectricityProduced:Plant,              !- Name
  Timestep;                               !- Reporting Frequency

OS:Output:Meter,
  {9e43ad6c-5646-4df7-8b1a-8b36eaa38266}, !- Handle
  Electricity:Facility,                   !- Name
  Timestep;                               !- Reporting Frequency

OS:Output:Meter,
  {283f1b95-8a0f-4650-87e0-911d956c4e9b}, !- Handle
  Photovoltaic:ElectricityProduced,       !- Name
  Timestep;                               !- Reporting Frequency

OS:Timestep,
  {f62c50f2-826c-4608-ae80-e4d34f01153b}, !- Handle
  4;                                      !- Number of Timesteps per Hour

OS:BuildingStory,
  {6902bc9e-7758-4bd0-801a-b471e6b635b8}, !- Handle
  Story 1,                                !- Name
  0,                                      !- Nominal Z Coordinate {m}
  3,                                      !- Nominal Floor to Floor Height {m}
  ,                                       !- Default Construction Set Name
  ,                                       !- Default Schedule Set Name
  ;                                       !- Group Rendering Name

OS:Space,
  {591eba1d-37c9-4550-a09f-6549ec9f6ede}, !- Handle
  Story 1 West Perimeter Space,           !- Name
  ,                                       !- Space Type Name
  ,                                       !- Default Construction Set Name
  {ea9cf4c8-1c37-4ddd-b603-f36357ca9125}, !- Default Schedule Set Name
  -0,                                     !- Direction of Relative North {deg}
  0,                                      !- X Origin {m}
  0,                                      !- Y Origin {m}
  0,                                      !- Z Origin {m}
  {6902bc9e-7758-4bd0-801a-b471e6b635b8}, !- Building Story Name
  {1d5a929e-e837-427f-b8fe-ed327462e155}; !- Thermal Zone Name

OS:Surface,
  {8c320524-fd9b-4458-b1ae-ad8a7ec1cc7a}, !- Handle
  Surface 1,                              !- Name
  Floor,                                  !- Surface Type
  {4e2914fe-ec97-4188-8574-c61e205caac5}, !- Construction Name
  {591eba1d-37c9-4550-a09f-6549ec9f6ede}, !- Space Name
  Ground,                                 !- Outside Boundary Condition
  ,                                       !- Outside Boundary Condition Object
  NoSun,                                  !- Sun Exposure
  NoWind,                                 !- Wind Exposure
  ,                                       !- View Factor to Ground
  ,                                       !- Number of Vertices
  0, 0, 0,                                !- X,Y,Z Vertex 1 {m}
  0, 25, 0,                               !- X,Y,Z Vertex 2 {m}
  5, 20, 0,                               !- X,Y,Z Vertex 3 {m}
  5, 5, 0;                                !- X,Y,Z Vertex 4 {m}

OS:Surface,
  {88972fe9-b2f4-4abe-91d8-afd259b64e2a}, !- Handle
  Surface 2,                              !- Name
  Wall,                                   !- Surface Type
  {f3fd63a0-84c1-4653-83cf-55e990b949c6}, !- Construction Name
  {591eba1d-37c9-4550-a09f-6549ec9f6ede}, !- Space Name
  Outdoors,                               !- Outside Boundary Condition
  ,                                       !- Outside Boundary Condition Object
  SunExposed,                             !- Sun Exposure
  WindExposed,                            !- Wind Exposure
  ,                                       !- View Factor to Ground
  ,                                       !- Number of Vertices
  0, 25, 3,                               !- X,Y,Z Vertex 1 {m}
  0, 25, 0,                               !- X,Y,Z Vertex 2 {m}
  0, 0, 0,                                !- X,Y,Z Vertex 3 {m}
  0, 0, 3;                                !- X,Y,Z Vertex 4 {m}

OS:Surface,
  {3af53f85-e1b6-4fd4-a898-b01afa100dd8}, !- Handle
  Surface 3,                              !- Name
  Wall,                                   !- Surface Type
  {664578d6-f8ce-4ec1-98b9-972841a7d6cd}, !- Construction Name
  {591eba1d-37c9-4550-a09f-6549ec9f6ede}, !- Space Name
  Surface,                                !- Outside Boundary Condition
  {6f3da102-df4e-433a-b108-7760671fdc75}, !- Outside Boundary Condition Object
  NoSun,                                  !- Sun Exposure
  NoWind,                                 !- Wind Exposure
  ,                                       !- View Factor to Ground
  ,                                       !- Number of Vertices
  5, 20, 3,                               !- X,Y,Z Vertex 1 {m}
  5, 20, 0,                               !- X,Y,Z Vertex 2 {m}
  0, 25, 0,                               !- X,Y,Z Vertex 3 {m}
  0, 25, 3;                               !- X,Y,Z Vertex 4 {m}

OS:Surface,
  {facf0162-7586-4811-890f-d48e27070500}, !- Handle
  Surface 4,                              !- Name
  Wall,                                   !- Surface Type
  {664578d6-f8ce-4ec1-98b9-972841a7d6cd}, !- Construction Name
  {591eba1d-37c9-4550-a09f-6549ec9f6ede}, !- Space Name
  Surface,                                !- Outside Boundary Condition
  {cd3b9961-2a69-4606-a1ed-ab156cdd78d0}, !- Outside Boundary Condition Object
  NoSun,                                  !- Sun Exposure
  NoWind,                                 !- Wind Exposure
  ,                                       !- View Factor to Ground
  ,                                       !- Number of Vertices
  5, 5, 3,                                !- X,Y,Z Vertex 1 {m}
  5, 5, 0,                                !- X,Y,Z Vertex 2 {m}
  5, 20, 0,                               !- X,Y,Z Vertex 3 {m}
  5, 20, 3;                               !- X,Y,Z Vertex 4 {m}

OS:Surface,
  {6ec9f40b-cbe6-4cab-be43-b730b318d217}, !- Handle
  Surface 5,                              !- Name
  Wall,                                   !- Surface Type
  {664578d6-f8ce-4ec1-98b9-972841a7d6cd}, !- Construction Name
  {591eba1d-37c9-4550-a09f-6549ec9f6ede}, !- Space Name
  Surface,                                !- Outside Boundary Condition
  {408c22cf-f425-43d2-9316-426b1da2d4e2}, !- Outside Boundary Condition Object
  NoSun,                                  !- Sun Exposure
  NoWind,                                 !- Wind Exposure
  ,                                       !- View Factor to Ground
  ,                                       !- Number of Vertices
  0, 0, 3,                                !- X,Y,Z Vertex 1 {m}
  0, 0, 0,                                !- X,Y,Z Vertex 2 {m}
  5, 5, 0,                                !- X,Y,Z Vertex 3 {m}
  5, 5, 3;                                !- X,Y,Z Vertex 4 {m}

OS:Surface,
  {ac8aa019-2c9c-45bd-aa09-7107377971bf}, !- Handle
  Surface 6,                              !- Name
  RoofCeiling,                            !- Surface Type
  {664578d6-f8ce-4ec1-98b9-972841a7d6cd}, !- Construction Name
  {591eba1d-37c9-4550-a09f-6549ec9f6ede}, !- Space Name
  Surface,                                !- Outside Boundary Condition
  {e7cdeac3-15ab-4a2f-87d0-fb171c5191a6}, !- Outside Boundary Condition Object
  NoSun,                                  !- Sun Exposure
  NoWind,                                 !- Wind Exposure
  ,                                       !- View Factor to Ground
  ,                                       !- Number of Vertices
  5, 5, 3,                                !- X,Y,Z Vertex 1 {m}
  5, 20, 3,                               !- X,Y,Z Vertex 2 {m}
  0, 25, 3,                               !- X,Y,Z Vertex 3 {m}
  0, 0, 3;                                !- X,Y,Z Vertex 4 {m}

OS:Space,
  {77c8beb3-b510-4ed4-86f0-98c564261a71}, !- Handle
  Story 1 North Perimeter Space,          !- Name
  ,                                       !- Space Type Name
  ,                                       !- Default Construction Set Name
  {ea9cf4c8-1c37-4ddd-b603-f36357ca9125}, !- Default Schedule Set Name
  -0,                                     !- Direction of Relative North {deg}
  5,                                      !- X Origin {m}
  20,                                     !- Y Origin {m}
  0,                                      !- Z Origin {m}
  {6902bc9e-7758-4bd0-801a-b471e6b635b8}, !- Building Story Name
  {347a04fb-48d7-4d3d-ad1c-01a9307e238c}; !- Thermal Zone Name

OS:Surface,
  {cffe782a-54dc-4eda-a449-7824d0cd4e6e}, !- Handle
  Surface 7,                              !- Name
  Floor,                                  !- Surface Type
  {4e2914fe-ec97-4188-8574-c61e205caac5}, !- Construction Name
  {77c8beb3-b510-4ed4-86f0-98c564261a71}, !- Space Name
  Ground,                                 !- Outside Boundary Condition
  ,                                       !- Outside Boundary Condition Object
  NoSun,                                  !- Sun Exposure
  NoWind,                                 !- Wind Exposure
  ,                                       !- View Factor to Ground
  ,                                       !- Number of Vertices
  -5, 5, 0,                               !- X,Y,Z Vertex 1 {m}
  20, 5, 0,                               !- X,Y,Z Vertex 2 {m}
  15, 0, 0,                               !- X,Y,Z Vertex 3 {m}
  0, 0, 0;                                !- X,Y,Z Vertex 4 {m}

OS:Surface,
  {e71f1086-0510-4d69-b39f-c41dcd7485b5}, !- Handle
  Surface 8,                              !- Name
  Wall,                                   !- Surface Type
  {f3fd63a0-84c1-4653-83cf-55e990b949c6}, !- Construction Name
  {77c8beb3-b510-4ed4-86f0-98c564261a71}, !- Space Name
  Outdoors,                               !- Outside Boundary Condition
  ,                                       !- Outside Boundary Condition Object
  SunExposed,                             !- Sun Exposure
  WindExposed,                            !- Wind Exposure
  ,                                       !- View Factor to Ground
  ,                                       !- Number of Vertices
  20, 5, 3,                               !- X,Y,Z Vertex 1 {m}
  20, 5, 0,                               !- X,Y,Z Vertex 2 {m}
  -5, 5, 0,                               !- X,Y,Z Vertex 3 {m}
  -5, 5, 3;                               !- X,Y,Z Vertex 4 {m}

OS:Surface,
  {fc4bb72d-0799-444e-87ad-02f006483a7d}, !- Handle
  Surface 9,                              !- Name
  Wall,                                   !- Surface Type
  {664578d6-f8ce-4ec1-98b9-972841a7d6cd}, !- Construction Name
  {77c8beb3-b510-4ed4-86f0-98c564261a71}, !- Space Name
  Surface,                                !- Outside Boundary Condition
  {14100855-6f3d-44c8-abf4-4c451551d746}, !- Outside Boundary Condition Object
  NoSun,                                  !- Sun Exposure
  NoWind,                                 !- Wind Exposure
  ,                                       !- View Factor to Ground
  ,                                       !- Number of Vertices
  15, 0, 3,                               !- X,Y,Z Vertex 1 {m}
  15, 0, 0,                               !- X,Y,Z Vertex 2 {m}
  20, 5, 0,                               !- X,Y,Z Vertex 3 {m}
  20, 5, 3;                               !- X,Y,Z Vertex 4 {m}

OS:Surface,
  {e5b59cc7-4539-4214-9dcb-7e9096588c01}, !- Handle
  Surface 10,                             !- Name
  Wall,                                   !- Surface Type
  {664578d6-f8ce-4ec1-98b9-972841a7d6cd}, !- Construction Name
  {77c8beb3-b510-4ed4-86f0-98c564261a71}, !- Space Name
  Surface,                                !- Outside Boundary Condition
  {83494240-2b3a-4371-9e93-3cf3a56ea30d}, !- Outside Boundary Condition Object
  NoSun,                                  !- Sun Exposure
  NoWind,                                 !- Wind Exposure
  ,                                       !- View Factor to Ground
  ,                                       !- Number of Vertices
  0, 0, 3,                                !- X,Y,Z Vertex 1 {m}
  0, 0, 0,                                !- X,Y,Z Vertex 2 {m}
  15, 0, 0,                               !- X,Y,Z Vertex 3 {m}
  15, 0, 3;                               !- X,Y,Z Vertex 4 {m}

OS:Surface,
  {6f3da102-df4e-433a-b108-7760671fdc75}, !- Handle
  Surface 11,                             !- Name
  Wall,                                   !- Surface Type
  {664578d6-f8ce-4ec1-98b9-972841a7d6cd}, !- Construction Name
  {77c8beb3-b510-4ed4-86f0-98c564261a71}, !- Space Name
  Surface,                                !- Outside Boundary Condition
  {3af53f85-e1b6-4fd4-a898-b01afa100dd8}, !- Outside Boundary Condition Object
  NoSun,                                  !- Sun Exposure
  NoWind,                                 !- Wind Exposure
  ,                                       !- View Factor to Ground
  ,                                       !- Number of Vertices
  -5, 5, 3,                               !- X,Y,Z Vertex 1 {m}
  -5, 5, 0,                               !- X,Y,Z Vertex 2 {m}
  0, 0, 0,                                !- X,Y,Z Vertex 3 {m}
  0, 0, 3;                                !- X,Y,Z Vertex 4 {m}

OS:Surface,
  {076482fa-0930-441f-a79c-65602edabf09}, !- Handle
  Surface 12,                             !- Name
  RoofCeiling,                            !- Surface Type
  {664578d6-f8ce-4ec1-98b9-972841a7d6cd}, !- Construction Name
  {77c8beb3-b510-4ed4-86f0-98c564261a71}, !- Space Name
  Surface,                                !- Outside Boundary Condition
  {8732d9f8-78be-4318-97ad-21974c8f4b30}, !- Outside Boundary Condition Object
  NoSun,                                  !- Sun Exposure
  NoWind,                                 !- Wind Exposure
  ,                                       !- View Factor to Ground
  ,                                       !- Number of Vertices
  0, 0, 3,                                !- X,Y,Z Vertex 1 {m}
  15, 0, 3,                               !- X,Y,Z Vertex 2 {m}
  20, 5, 3,                               !- X,Y,Z Vertex 3 {m}
  -5, 5, 3;                               !- X,Y,Z Vertex 4 {m}

OS:Space,
  {2d7465f6-6f20-4071-ae54-902e16005d34}, !- Handle
  Story 1 East Perimeter Space,           !- Name
  ,                                       !- Space Type Name
  ,                                       !- Default Construction Set Name
  {ea9cf4c8-1c37-4ddd-b603-f36357ca9125}, !- Default Schedule Set Name
  -0,                                     !- Direction of Relative North {deg}
  20,                                     !- X Origin {m}
  5,                                      !- Y Origin {m}
  0,                                      !- Z Origin {m}
  {6902bc9e-7758-4bd0-801a-b471e6b635b8}, !- Building Story Name
  {5495ab52-feaa-4474-9089-d6e059c33ad8}; !- Thermal Zone Name

OS:Surface,
  {ae6b5747-6798-42da-962d-e83c4f629ec7}, !- Handle
  Surface 13,                             !- Name
  Floor,                                  !- Surface Type
  {4e2914fe-ec97-4188-8574-c61e205caac5}, !- Construction Name
  {2d7465f6-6f20-4071-ae54-902e16005d34}, !- Space Name
  Ground,                                 !- Outside Boundary Condition
  ,                                       !- Outside Boundary Condition Object
  NoSun,                                  !- Sun Exposure
  NoWind,                                 !- Wind Exposure
  ,                                       !- View Factor to Ground
  ,                                       !- Number of Vertices
  5, 20, 0,                               !- X,Y,Z Vertex 1 {m}
  5, -5, 0,                               !- X,Y,Z Vertex 2 {m}
  0, 0, 0,                                !- X,Y,Z Vertex 3 {m}
  0, 15, 0;                               !- X,Y,Z Vertex 4 {m}

OS:Surface,
  {38262ce2-f231-4802-ba11-7e852b24318a}, !- Handle
  Surface 14,                             !- Name
  Wall,                                   !- Surface Type
  {f3fd63a0-84c1-4653-83cf-55e990b949c6}, !- Construction Name
  {2d7465f6-6f20-4071-ae54-902e16005d34}, !- Space Name
  Outdoors,                               !- Outside Boundary Condition
  ,                                       !- Outside Boundary Condition Object
  SunExposed,                             !- Sun Exposure
  WindExposed,                            !- Wind Exposure
  ,                                       !- View Factor to Ground
  ,                                       !- Number of Vertices
  5, -5, 3,                               !- X,Y,Z Vertex 1 {m}
  5, -5, 0,                               !- X,Y,Z Vertex 2 {m}
  5, 20, 0,                               !- X,Y,Z Vertex 3 {m}
  5, 20, 3;                               !- X,Y,Z Vertex 4 {m}

OS:Surface,
  {cb220359-5cef-4ee1-a3e5-6191e6f550b6}, !- Handle
  Surface 15,                             !- Name
  Wall,                                   !- Surface Type
  {664578d6-f8ce-4ec1-98b9-972841a7d6cd}, !- Construction Name
  {2d7465f6-6f20-4071-ae54-902e16005d34}, !- Space Name
  Surface,                                !- Outside Boundary Condition
  {0aab3d22-d97f-449c-a1df-0c64a05f0a9e}, !- Outside Boundary Condition Object
  NoSun,                                  !- Sun Exposure
  NoWind,                                 !- Wind Exposure
  ,                                       !- View Factor to Ground
  ,                                       !- Number of Vertices
  0, 0, 3,                                !- X,Y,Z Vertex 1 {m}
  0, 0, 0,                                !- X,Y,Z Vertex 2 {m}
  5, -5, 0,                               !- X,Y,Z Vertex 3 {m}
  5, -5, 3;                               !- X,Y,Z Vertex 4 {m}

OS:Surface,
  {6042a059-749a-4414-a979-d8c994ca9f33}, !- Handle
  Surface 16,                             !- Name
  Wall,                                   !- Surface Type
  {664578d6-f8ce-4ec1-98b9-972841a7d6cd}, !- Construction Name
  {2d7465f6-6f20-4071-ae54-902e16005d34}, !- Space Name
  Surface,                                !- Outside Boundary Condition
  {ff2583fb-f87c-4b86-9252-f2f703a6a895}, !- Outside Boundary Condition Object
  NoSun,                                  !- Sun Exposure
  NoWind,                                 !- Wind Exposure
  ,                                       !- View Factor to Ground
  ,                                       !- Number of Vertices
  0, 15, 3,                               !- X,Y,Z Vertex 1 {m}
  0, 15, 0,                               !- X,Y,Z Vertex 2 {m}
  0, 0, 0,                                !- X,Y,Z Vertex 3 {m}
  0, 0, 3;                                !- X,Y,Z Vertex 4 {m}

OS:Surface,
  {14100855-6f3d-44c8-abf4-4c451551d746}, !- Handle
  Surface 17,                             !- Name
  Wall,                                   !- Surface Type
  {664578d6-f8ce-4ec1-98b9-972841a7d6cd}, !- Construction Name
  {2d7465f6-6f20-4071-ae54-902e16005d34}, !- Space Name
  Surface,                                !- Outside Boundary Condition
  {fc4bb72d-0799-444e-87ad-02f006483a7d}, !- Outside Boundary Condition Object
  NoSun,                                  !- Sun Exposure
  NoWind,                                 !- Wind Exposure
  ,                                       !- View Factor to Ground
  ,                                       !- Number of Vertices
  5, 20, 3,                               !- X,Y,Z Vertex 1 {m}
  5, 20, 0,                               !- X,Y,Z Vertex 2 {m}
  0, 15, 0,                               !- X,Y,Z Vertex 3 {m}
  0, 15, 3;                               !- X,Y,Z Vertex 4 {m}

OS:Surface,
  {00276952-acba-4d43-8908-8c97b182ca71}, !- Handle
  Surface 18,                             !- Name
  RoofCeiling,                            !- Surface Type
  {664578d6-f8ce-4ec1-98b9-972841a7d6cd}, !- Construction Name
  {2d7465f6-6f20-4071-ae54-902e16005d34}, !- Space Name
  Surface,                                !- Outside Boundary Condition
  {d7b76f6f-ca86-4c12-90db-185bf998d03f}, !- Outside Boundary Condition Object
  NoSun,                                  !- Sun Exposure
  NoWind,                                 !- Wind Exposure
  ,                                       !- View Factor to Ground
  ,                                       !- Number of Vertices
  0, 15, 3,                               !- X,Y,Z Vertex 1 {m}
  0, 0, 3,                                !- X,Y,Z Vertex 2 {m}
  5, -5, 3,                               !- X,Y,Z Vertex 3 {m}
  5, 20, 3;                               !- X,Y,Z Vertex 4 {m}

OS:Space,
  {e780a2f0-20d8-45b9-81c5-af8a3352afad}, !- Handle
  Story 1 South Perimeter Space,          !- Name
  ,                                       !- Space Type Name
  ,                                       !- Default Construction Set Name
  {ea9cf4c8-1c37-4ddd-b603-f36357ca9125}, !- Default Schedule Set Name
  -0,                                     !- Direction of Relative North {deg}
  0,                                      !- X Origin {m}
  0,                                      !- Y Origin {m}
  0,                                      !- Z Origin {m}
  {6902bc9e-7758-4bd0-801a-b471e6b635b8}, !- Building Story Name
  {440ae27b-05e9-4b3f-a7c0-f6b2c882fc5b}; !- Thermal Zone Name

OS:Surface,
  {e959ef89-54f2-4b46-87e5-e8335241b26e}, !- Handle
  Surface 19,                             !- Name
  Floor,                                  !- Surface Type
  {4e2914fe-ec97-4188-8574-c61e205caac5}, !- Construction Name
  {e780a2f0-20d8-45b9-81c5-af8a3352afad}, !- Space Name
  Ground,                                 !- Outside Boundary Condition
  ,                                       !- Outside Boundary Condition Object
  NoSun,                                  !- Sun Exposure
  NoWind,                                 !- Wind Exposure
  ,                                       !- View Factor to Ground
  ,                                       !- Number of Vertices
  25, 0, 0,                               !- X,Y,Z Vertex 1 {m}
  0, 0, 0,                                !- X,Y,Z Vertex 2 {m}
  5, 5, 0,                                !- X,Y,Z Vertex 3 {m}
  20, 5, 0;                               !- X,Y,Z Vertex 4 {m}

OS:Surface,
  {7722ed7a-1219-42dd-976a-48b2a3cb1b4a}, !- Handle
  Surface 20,                             !- Name
  Wall,                                   !- Surface Type
  {f3fd63a0-84c1-4653-83cf-55e990b949c6}, !- Construction Name
  {e780a2f0-20d8-45b9-81c5-af8a3352afad}, !- Space Name
  Outdoors,                               !- Outside Boundary Condition
  ,                                       !- Outside Boundary Condition Object
  SunExposed,                             !- Sun Exposure
  WindExposed,                            !- Wind Exposure
  ,                                       !- View Factor to Ground
  ,                                       !- Number of Vertices
  0, 0, 3,                                !- X,Y,Z Vertex 1 {m}
  0, 0, 0,                                !- X,Y,Z Vertex 2 {m}
  25, 0, 0,                               !- X,Y,Z Vertex 3 {m}
  25, 0, 3;                               !- X,Y,Z Vertex 4 {m}

OS:Surface,
  {408c22cf-f425-43d2-9316-426b1da2d4e2}, !- Handle
  Surface 21,                             !- Name
  Wall,                                   !- Surface Type
  {664578d6-f8ce-4ec1-98b9-972841a7d6cd}, !- Construction Name
  {e780a2f0-20d8-45b9-81c5-af8a3352afad}, !- Space Name
  Surface,                                !- Outside Boundary Condition
  {6ec9f40b-cbe6-4cab-be43-b730b318d217}, !- Outside Boundary Condition Object
  NoSun,                                  !- Sun Exposure
  NoWind,                                 !- Wind Exposure
  ,                                       !- View Factor to Ground
  ,                                       !- Number of Vertices
  5, 5, 3,                                !- X,Y,Z Vertex 1 {m}
  5, 5, 0,                                !- X,Y,Z Vertex 2 {m}
  0, 0, 0,                                !- X,Y,Z Vertex 3 {m}
  0, 0, 3;                                !- X,Y,Z Vertex 4 {m}

OS:Surface,
  {dd981900-4cf5-4ae5-bbd6-93bea60594db}, !- Handle
  Surface 22,                             !- Name
  Wall,                                   !- Surface Type
  {664578d6-f8ce-4ec1-98b9-972841a7d6cd}, !- Construction Name
  {e780a2f0-20d8-45b9-81c5-af8a3352afad}, !- Space Name
  Surface,                                !- Outside Boundary Condition
  {d66b5c1c-a044-46f2-8aa7-20d54a9db1bb}, !- Outside Boundary Condition Object
  NoSun,                                  !- Sun Exposure
  NoWind,                                 !- Wind Exposure
  ,                                       !- View Factor to Ground
  ,                                       !- Number of Vertices
  20, 5, 3,                               !- X,Y,Z Vertex 1 {m}
  20, 5, 0,                               !- X,Y,Z Vertex 2 {m}
  5, 5, 0,                                !- X,Y,Z Vertex 3 {m}
  5, 5, 3;                                !- X,Y,Z Vertex 4 {m}

OS:Surface,
  {0aab3d22-d97f-449c-a1df-0c64a05f0a9e}, !- Handle
  Surface 23,                             !- Name
  Wall,                                   !- Surface Type
  {664578d6-f8ce-4ec1-98b9-972841a7d6cd}, !- Construction Name
  {e780a2f0-20d8-45b9-81c5-af8a3352afad}, !- Space Name
  Surface,                                !- Outside Boundary Condition
  {cb220359-5cef-4ee1-a3e5-6191e6f550b6}, !- Outside Boundary Condition Object
  NoSun,                                  !- Sun Exposure
  NoWind,                                 !- Wind Exposure
  ,                                       !- View Factor to Ground
  ,                                       !- Number of Vertices
  25, 0, 3,                               !- X,Y,Z Vertex 1 {m}
  25, 0, 0,                               !- X,Y,Z Vertex 2 {m}
  20, 5, 0,                               !- X,Y,Z Vertex 3 {m}
  20, 5, 3;                               !- X,Y,Z Vertex 4 {m}

OS:Surface,
  {588e1b58-8eff-4615-a322-731ead109e7d}, !- Handle
  Surface 24,                             !- Name
  RoofCeiling,                            !- Surface Type
  {664578d6-f8ce-4ec1-98b9-972841a7d6cd}, !- Construction Name
  {e780a2f0-20d8-45b9-81c5-af8a3352afad}, !- Space Name
  Surface,                                !- Outside Boundary Condition
  {15d07142-b2a5-4a23-bd83-23311088c601}, !- Outside Boundary Condition Object
  NoSun,                                  !- Sun Exposure
  NoWind,                                 !- Wind Exposure
  ,                                       !- View Factor to Ground
  ,                                       !- Number of Vertices
  20, 5, 3,                               !- X,Y,Z Vertex 1 {m}
  5, 5, 3,                                !- X,Y,Z Vertex 2 {m}
  0, 0, 3,                                !- X,Y,Z Vertex 3 {m}
  25, 0, 3;                               !- X,Y,Z Vertex 4 {m}

OS:Space,
  {403243d5-4bd7-4338-b2b1-a9b4bc2f9ab9}, !- Handle
  Story 1 Core Space,                     !- Name
  ,                                       !- Space Type Name
  ,                                       !- Default Construction Set Name
  {ea9cf4c8-1c37-4ddd-b603-f36357ca9125}, !- Default Schedule Set Name
  -0,                                     !- Direction of Relative North {deg}
  5,                                      !- X Origin {m}
  5,                                      !- Y Origin {m}
  0,                                      !- Z Origin {m}
  {6902bc9e-7758-4bd0-801a-b471e6b635b8}, !- Building Story Name
  {88972fe2-572f-4c05-8974-4c3e56a33a9d}; !- Thermal Zone Name

OS:Surface,