
OS:Version,
  {5f5644b5-c2a3-4491-ba25-d4c64897200e}, !- Handle
  3.0.1;                                  !- Version Identifier

OS:Schedule:Constant,
  {b5beaa89-e81c-44c3-81e1-418e33e0ca47}, !- Handle
  Always On Discrete,                     !- Name
  ,                                       !- Schedule Type Limits Name
  1;                                      !- Value

OS:Building,
  {f73b031c-bb31-4fa0-ad96-2e9846c4d752}, !- Handle
  Building 1,                             !- Name
  ,                                       !- Building Sector Type
  ,                                       !- North Axis {deg}
  ,                                       !- Nominal Floor to Floor Height {m}
  ,                                       !- Space Type Name
  {58749418-1c83-496b-94e6-80aa0fd3ac39}, !- Default Construction Set Name
  ,                                       !- Default Schedule Set Name
  ,                                       !- Standards Number of Stories
  ,                                       !- Standards Number of Above Ground Stories
  ,                                       !- Standards Template
  ,                                       !- Standards Building Type
  ,                                       !- Standards Number of Living Units
  ,                                       !- Relocatable
  ;                                       !- Nominal Floor to Ceiling Height {m}

OS:DefaultConstructionSet,
  {4526526b-2bc4-45b3-b597-da3d92ad09a1}, !- Handle
  189.1-2009 - CZ1 - Office,              !- Name
  {94698301-6b84-4a6f-8b78-75bca600fb17}, !- Default Exterior Surface Constructions Name
  {30976b66-935b-4753-a4c5-4dde3dad9985}, !- Default Interior Surface Constructions Name
  {a0baf7b0-7330-421a-9c8c-7addd1712d20}, !- Default Ground Contact Surface Constructions Name
  {8c8dde84-fcf4-4c1e-ace0-a8bff3aee1ab}, !- Default Exterior SubSurface Constructions Name
  {af21604d-d2d4-48d6-ad7c-2a2dbef9e849}, !- Default Interior SubSurface Constructions Name
  {ead91c2f-4359-42f5-b36e-9a36c9253598}, !- Interior Partition Construction Name
  ,                                       !- Space Shading Construction Name
  ,                                       !- Building Shading Construction Name
  ,                                       !- Site Shading Construction Name
  ;                                       !- Adiabatic Surface Construction Name

OS:DefaultSurfaceConstructions,
  {94698301-6b84-4a6f-8b78-75bca600fb17}, !- Handle
  Default Surface Constructions 1,        !- Name
  {78a5e5c5-806e-400a-a800-196f73e1d063}, !- Floor Construction Name
  {c79253de-386e-46f7-8631-b7bc0fd326fd}, !- Wall Construction Name
  {94f9c7d5-7c2c-4130-9083-b2afb613c345}; !- Roof Ceiling Construction Name

OS:Construction,
  {78a5e5c5-806e-400a-a800-196f73e1d063}, !- Handle
  ExtSlabCarpet 4in ClimateZone 1-8,      !- Name
  ,                                       !- Surface Rendering Name
  {b0084fcb-96e4-4ea6-8b82-68ce2789bc5d}, !- Layer 1
  {778222fb-2d70-4bd3-87aa-e0e7025f46d9}; !- Layer 2

OS:StandardsInformation:Construction,
  {be48e1b7-5a23-4b52-b581-d47874f332d0}, !- Handle
  {78a5e5c5-806e-400a-a800-196f73e1d063}, !- Construction Name
  ExteriorFloor,                          !- Intended Surface Type
  ;                                       !- Standards Construction Type

OS:Material,
  {b0084fcb-96e4-4ea6-8b82-68ce2789bc5d}, !- Handle
  MAT-CC05 4 HW CONCRETE,                 !- Name
  Rough,                                  !- Roughness
  0.1016,                                 !- Thickness {m}
  1.311,                                  !- Conductivity {W/m-K}
  2240,                                   !- Density {kg/m3}
  836.800000000001,                       !- Specific Heat {J/kg-K}
  0.9,                                    !- Thermal Absorptance
  0.85,                                   !- Solar Absorptance
  0.85;                                   !- Visible Absorptance

OS:Material:NoMass,
  {778222fb-2d70-4bd3-87aa-e0e7025f46d9}, !- Handle
  CP02 CARPET PAD,                        !- Name
  Smooth,                                 !- Roughness
  0.1,                                    !- Thermal Resistance {m2-K/W}
  0.9,                                    !- Thermal Absorptance
  0.8,                                    !- Solar Absorptance
  0.8;                                    !- Visible Absorptance

OS:Construction,
  {c79253de-386e-46f7-8631-b7bc0fd326fd}, !- Handle
  ASHRAE 189.1-2009 ExtWall Mass ClimateZone 1, !- Name
  ,                                       !- Surface Rendering Name
  {56962c43-17db-4226-8ddc-220e96c9d631}, !- Layer 1
  {4cc6a40e-03a3-48aa-95cb-72a4e9afb846}, !- Layer 2
  {35df83f0-9c9a-4bd0-867b-e4f56f2d21e0}, !- Layer 3
  {b6d8e415-7411-437a-ac2c-78a8b90db9d2}; !- Layer 4

OS:StandardsInformation:Construction,
  {c35bdbe1-9364-40c4-a088-3593de04f1fd}, !- Handle
  {c79253de-386e-46f7-8631-b7bc0fd326fd}, !- Construction Name
  ExteriorWall,                           !- Intended Surface Type
  Mass;                                   !- Standards Construction Type

OS:Material,
  {56962c43-17db-4226-8ddc-220e96c9d631}, !- Handle
  1IN Stucco,                             !- Name
  Smooth,                                 !- Roughness
  0.0253,                                 !- Thickness {m}
  0.691799999999999,                      !- Conductivity {W/m-K}
  1858,                                   !- Density {kg/m3}
  836.999999999999,                       !- Specific Heat {J/kg-K}
  0.9,                                    !- Thermal Absorptance
  0.92,                                   !- Solar Absorptance
  0.92;                                   !- Visible Absorptance

OS:Material,
  {4cc6a40e-03a3-48aa-95cb-72a4e9afb846}, !- Handle
  8IN Concrete HW,                        !- Name
  MediumRough,                            !- Roughness
  0.2033,                                 !- Thickness {m}
  1.72959999999999,                       !- Conductivity {W/m-K}
  2242.99999999999,                       !- Density {kg/m3}
  836.999999999999,                       !- Specific Heat {J/kg-K}
  0.9,                                    !- Thermal Absorptance
  0.65,                                   !- Solar Absorptance
  0.65;                                   !- Visible Absorptance

OS:Material,
  {35df83f0-9c9a-4bd0-867b-e4f56f2d21e0}, !- Handle
  Wall Insulation [31],                   !- Name
  MediumRough,                            !- Roughness
  0.0337000000000001,                     !- Thickness {m}
  0.0432,                                 !- Conductivity {W/m-K}
  91,                                     !- Density {kg/m3}
  836.999999999999,                       !- Specific Heat {J/kg-K}
  0.9,                                    !- Thermal Absorptance
  0.5,                                    !- Solar Absorptance
  0.5;                                    !- Visible Absorptance

OS:Material,
  {b6d8e415-7411-437a-ac2c-78a8b90db9d2}, !- Handle
  1/2IN Gypsum,                           !- Name
  Smooth,                                 !- Roughness
  0.0127,                                 !- Thickness {m}
  0.16,                                   !- Conductivity {W/m-K}
  784.9,                                  !- Density {kg/m3}
  830.000000000001,                       !- Specific Heat {J/kg-K}
  0.9,                                    !- Thermal Absorptance
  0.4,                                    !- Solar Absorptance
  0.4;                                    !- Visible Absorptance

OS:Construction,
  {94f9c7d5-7c2c-4130-9083-b2afb613c345}, !- Handle
  ASHRAE 189.1-2009 ExtRoof IEAD ClimateZone 1, !- Name
  ,                                       !- Surface Rendering Name
  {6710a532-69d6-4fff-84fd-c78074630b20}, !- Layer 1
  {87585ab0-524e-4577-85fa-ca9d328a544b}, !- Layer 2
  {14035dbf-33ad-4b63-a0f4-bc09dc3e2743}; !- Layer 3

OS:StandardsInformation:Construction,
  {8077a8bc-469c-4708-9d1e-1a587be91ef0}, !- Handle
  {94f9c7d5-7c2c-4130-9083-b2afb613c345}, !- Construction Name
  ExteriorRoof,                           !- Intended Surface Type
  IEAD;                                   !- Standards Construction Type

OS:Material,
  {6710a532-69d6-4fff-84fd-c78074630b20}, !- Handle
  Roof Membrane,                          !- Name
  VeryRough,                              !- Roughness
  0.0095,                                 !- Thickness {m}
  0.16,                                   !- Conductivity {W/m-K}
  1121.29,                                !- Density {kg/m3}
  1460,                                   !- Specific Heat {J/kg-K}
  0.9,                                    !- Thermal Absorptance
  0.7,                                    !- Solar Absorptance
  0.7;                                    !- Visible Absorptance

OS:Material,
  {87585ab0-524e-4577-85fa-ca9d328a544b}, !- Handle
  Roof Insulation [18],                   !- Name
  MediumRough,                            !- Roughness
  0.1693,                                 !- Thickness {m}
  0.049,                                  !- Conductivity {W/m-K}
  265,                                    !- Density {kg/m3}
  836.800000000001,                       !- Specific Heat {J/kg-K}
  0.9,                                    !- Thermal Absorptance
  0.7,                                    !- Solar Absorptance
  0.7;                                    !- Visible Absorptance

OS:Material,
  {14035dbf-33ad-4b63-a0f4-bc09dc3e2743}, !- Handle
  Metal Decking,                          !- Name
  MediumSmooth,                           !- Roughness
  0.0015,                                 !- Thickness {m}
  45.006,                                 !- Conductivity {W/m-K}
  7680,                                   !- Density {kg/m3}
  418.4,                                  !- Specific Heat {J/kg-K}
  0.9,                                    !- Thermal Absorptance
  0.6,                                    !- Solar Absorptance
  0.6;                                    !- Visible Absorptance

OS:DefaultSurfaceConstructions,
  {30976b66-935b-4753-a4c5-4dde3dad9985}, !- Handle
  Default Surface Constructions 2,        !- Name
  {4ee71df9-85c1-4a24-9be8-bee433f9e015}, !- Floor Construction Name
  {7ea68359-ad75-4d6c-8862-e2965b9ee3ab}, !- Wall Construction Name
  {edd9ecd3-4290-4d56-b5a9-ef02bf102418}; !- Roof Ceiling Construction Name

OS:Construction,
  {4ee71df9-85c1-4a24-9be8-bee433f9e015}, !- Handle
  Interior Floor,                         !- Name
  ,                                       !- Surface Rendering Name
  {9732ca82-5b07-4b63-b379-a76d13f9d0d2}, !- Layer 1
  {c7326da9-9b42-4f08-b9c2-710e29f1df68}, !- Layer 2
  {5b28cd98-6ada-46e3-ab5c-8ce18c82e2e4}; !- Layer 3

OS:StandardsInformation:Construction,
  {663cbab6-e62e-4117-aefb-5a2c9b9cd1b3}, !- Handle
  {4ee71df9-85c1-4a24-9be8-bee433f9e015}, !- Construction Name
  InteriorFloor,                          !- Intended Surface Type
  ;                                       !- Standards Construction Type

OS:Material,
  {9732ca82-5b07-4b63-b379-a76d13f9d0d2}, !- Handle
  F16 Acoustic tile,                      !- Name
  MediumSmooth,                           !- Roughness
  0.0191,                                 !- Thickness {m}
  0.06,                                   !- Conductivity {W/m-K}
  368,                                    !- Density {kg/m3}
  590.000000000002,                       !- Specific Heat {J/kg-K}
  0.9,                                    !- Thermal Absorptance
  0.3,                                    !- Solar Absorptance
  0.3;                                    !- Visible Absorptance

OS:Material:AirGap,
  {c7326da9-9b42-4f08-b9c2-710e29f1df68}, !- Handle
  F05 Ceiling air space resistance,       !- Name
  0.18;                                   !- Thermal Resistance {m2-K/W}

OS:Material,
  {5b28cd98-6ada-46e3-ab5c-8ce18c82e2e4}, !- Handle
  M11 100mm lightweight concrete,         !- Name
  MediumRough,                            !- Roughness
  0.1016,                                 !- Thickness {m}
  0.53,                                   !- Conductivity {W/m-K}
  1280,                                   !- Density {kg/m3}
  840.000000000002,                       !- Specific Heat {J/kg-K}
  0.9,                                    !- Thermal Absorptance
  0.5,                                    !- Solar Absorptance
  0.5;                                    !- Visible Absorptance

OS:Construction,
  {7ea68359-ad75-4d6c-8862-e2965b9ee3ab}, !- Handle
  Interior Wall,                          !- Name
  ,                                       !- Surface Rendering Name
  {2dde63ec-8c12-47e9-a694-a5c55907b2a7}, !- Layer 1
  {205d1797-4786-41aa-bb49-c62de03322d9}, !- Layer 2
  {2dde63ec-8c12-47e9-a694-a5c55907b2a7}; !- Layer 3

OS:StandardsInformation:Construction,
  {bf9c6bdf-1d79-4160-843a-67a65bd63099}, !- Handle
  {7ea68359-ad75-4d6c-8862-e2965b9ee3ab}, !- Construction Name
  InteriorWall,                           !- Intended Surface Type
  ;                                       !- Standards Construction Type

OS:Material,
  {2dde63ec-8c12-47e9-a694-a5c55907b2a7}, !- Handle
  G01a 19mm gypsum board,                 !- Name
  MediumSmooth,                           !- Roughness
  0.019,                                  !- Thickness {m}
  0.16,                                   !- Conductivity {W/m-K}
  800,                                    !- Density {kg/m3}
  1090,                                   !- Specific Heat {J/kg-K}
  0.9,                                    !- Thermal Absorptance
  0.4,                                    !- Solar Absorptance
  0.4;                                    !- Visible Absorptance

OS:Material:AirGap,
  {205d1797-4786-41aa-bb49-c62de03322d9}, !- Handle
  F04 Wall air space resistance,          !- Name
  0.15;                                   !- Thermal Resistance {m2-K/W}

OS:Construction,
  {edd9ecd3-4290-4d56-b5a9-ef02bf102418}, !- Handle
  Interior Ceiling,                       !- Name
  ,                                       !- Surface Rendering Name
  {5b28cd98-6ada-46e3-ab5c-8ce18c82e2e4}, !- Layer 1
  {c7326da9-9b42-4f08-b9c2-710e29f1df68}, !- Layer 2
  {9732ca82-5b07-4b63-b379-a76d13f9d0d2}; !- Layer 3

OS:StandardsInformation:Construction,
  {ebe3b12b-5ab0-4ea3-a460-6d15ad1d838c}, !- Handle
  {edd9ecd3-4290-4d56-b5a9-ef02bf102418}, !- Construction Name
  InteriorCeiling,                        !- Intended Surface Type
  ;                                       !- Standards Construction Type

OS:DefaultSurfaceConstructions,
  {a0baf7b0-7330-421a-9c8c-7addd1712d20}, !- Handle
  Default Surface Constructions 3,        !- Name
  {78a5e5c5-806e-400a-a800-196f73e1d063}, !- Floor Construction Name
  {78a5e5c5-806e-400a-a800-196f73e1d063}, !- Wall Construction Name
  {78a5e5c5-806e-400a-a800-196f73e1d063}; !- Roof Ceiling Construction Name

OS:DefaultSubSurfaceConstructions,
  {8c8dde84-fcf4-4c1e-ace0-a8bff3aee1ab}, !- Handle
  Default Sub Surface Constructions 1,    !- Name
  {0644291c-bb2c-4d3e-8d12-d9bf784b59f3}, !- Fixed Window Construction Name
  {0644291c-bb2c-4d3e-8d12-d9bf784b59f3}, !- Operable Window Construction Name
  {f16a7fb7-d40d-43c5-9ad7-3bfe84654a03}, !- Door Construction Name
  ,                                       !- Glass Door Construction Name
  ,                                       !- Overhead Door Construction Name
  ,                                       !- Skylight Construction Name
  {ae4fa780-ed05-42e8-925d-8cfdef96ee27}, !- Tubular Daylight Dome Construction Name
  {ae4fa780-ed05-42e8-925d-8cfdef96ee27}; !- Tubular Daylight Diffuser Construction Name

OS:Construction,
  {0644291c-bb2c-4d3e-8d12-d9bf784b59f3}, !- Handle
  ASHRAE 189.1-2009 ExtWindow ClimateZone 1, !- Name
  ,                                       !- Surface Rendering Name
  {7504c39d-35b9-46a8-af6b-598ea9efbc00}; !- Layer 1

OS:StandardsInformation:Construction,
  {2f79b030-385e-4a8e-9611-a6086da78f3b}, !- Handle
  {0644291c-bb2c-4d3e-8d12-d9bf784b59f3}, !- Construction Name
  ExteriorWindow,                         !- Intended Surface Type
  ;                                       !- Standards Construction Type

OS:WindowMaterial:Glazing,
  {7504c39d-35b9-46a8-af6b-598ea9efbc00}, !- Handle
  Theoretical Glass [167],                !- Name
  SpectralAverage,                        !- Optical Data Type
  ,                                       !- Window Glass Spectral Data Set Name
  0.00299999999999999,                    !- Thickness {m}
  0.2374,                                 !- Solar Transmittance at Normal Incidence
  0.7126,                                 !- Front Side Solar Reflectance at Normal Incidence
  0,                                      !- Back Side Solar Reflectance at Normal Incidence
  0.2512,                                 !- Visible Transmittance at Normal Incidence
  0.6988,                                 !- Front Side Visible Reflectance at Normal Incidence
  0,                                      !- Back Side Visible Reflectance at Normal Incidence
  0,                                      !- Infrared Transmittance at Normal Incidence
  0.985,                                  !- Front Side Infrared Hemispherical Emissivity
  0.985,                                  !- Back Side Infrared Hemispherical Emissivity
  2.1073,                                 !- Conductivity {W/m-K}
  1,                                      !- Dirt Correction Factor for Solar and Visible Transmittance
  No;                                     !- Solar Diffusing

OS:Construction,
  {f16a7fb7-d40d-43c5-9ad7-3bfe84654a03}, !- Handle
  Exterior Door,                          !- Name
  ,                                       !- Surface Rendering Name
  {c6e9c62f-1f07-4a3e-9b2c-2831b69154d4}, !- Layer 1
  {ae918277-1c95-4bfe-88be-0a83ad1a7f17}; !- Layer 2

OS:StandardsInformation:Construction,
  {8360869b-2b70-474f-bade-2c09b27cfba6}, !- Handle
  {f16a7fb7-d40d-43c5-9ad7-3bfe84654a03}, !- Construction Name
  ExteriorDoor,                           !- Intended Surface Type
  ;                                       !- Standards Construction Type

OS:Material,
  {c6e9c62f-1f07-4a3e-9b2c-2831b69154d4}, !- Handle
  F08 Metal surface,                      !- Name
  Smooth,                                 !- Roughness
  0.0008,                                 !- Thickness {m}
  45.2800000000001,                       !- Conductivity {W/m-K}
  7823.99999999999,                       !- Density {kg/m3}
  500,                                    !- Specific Heat {J/kg-K}
  0.9,                                    !- Thermal Absorptance
  0.7,                                    !- Solar Absorptance
  0.7;                                    !- Visible Absorptance

OS:Material,
  {ae918277-1c95-4bfe-88be-0a83ad1a7f17}, !- Handle
  I01 25mm insulation board,              !- Name
  MediumRough,                            !- Roughness
  0.0254,                                 !- Thickness {m}
  0.03,                                   !- Conductivity {W/m-K}
  43,                                     !- Density {kg/m3}
  1210,                                   !- Specific Heat {J/kg-K}
  0.9,                                    !- Thermal Absorptance
  0.6,                                    !- Solar Absorptance
  0.6;                                    !- Visible Absorptance

OS:Construction,
  {ae4fa780-ed05-42e8-925d-8cfdef96ee27}, !- Handle
  Interior Window,                        !- Name
  ,                                       !- Surface Rendering Name
  {572356bb-0c24-49d0-b480-38deaae93b50}; !- Layer 1

OS:StandardsInformation:Construction,
  {4fba2562-eb53-42df-a812-1a96a11e00db}, !- Handle
  {ae4fa780-ed05-42e8-925d-8cfdef96ee27}, !- Construction Name
  InteriorWindow,                         !- Intended Surface Type
  ;                                       !- Standards Construction Type

OS:WindowMaterial:Glazing,
  {572356bb-0c24-49d0-b480-38deaae93b50}, !- Handle
  Clear 3mm,                              !- Name
  SpectralAverage,                        !- Optical Data Type
  ,                                       !- Window Glass Spectral Data Set Name
  0.00299999999999999,                    !- Thickness {m}
  0.837,                                  !- Solar Transmittance at Normal Incidence
  0.075,                                  !- Front Side Solar Reflectance at Normal Incidence
  0,                                      !- Back Side Solar Reflectance at Normal Incidence
  0.898,                                  !- Visible Transmittance at Normal Incidence
  0.081,                                  !- Front Side Visible Reflectance at Normal Incidence
  0,                                      !- Back Side Visible Reflectance at Normal Incidence
  0,                                      !- Infrared Transmittance at Normal Incidence
  0.84,                                   !- Front Side Infrared Hemispherical Emissivity
  0.84,                                   !- Back Side Infrared Hemispherical Emissivity
  0.9,                                    !- Conductivity {W/m-K}
  1,                                      !- Dirt Correction Factor for Solar and Visible Transmittance
  No;                                     !- Solar Diffusing

OS:DefaultSubSurfaceConstructions,
  {af21604d-d2d4-48d6-ad7c-2a2dbef9e849}, !- Handle
  Default Sub Surface Constructions 2,    !- Name
  {ae4fa780-ed05-42e8-925d-8cfdef96ee27}, !- Fixed Window Construction Name
  {ae4fa780-ed05-42e8-925d-8cfdef96ee27}, !- Operable Window Construction Name
  {ffeb525e-fabf-4359-8b2f-bec6d1975f7c}, !- Door Construction Name
  ,                                       !- Glass Door Construction Name
  ,                                       !- Overhead Door Construction Name
  ,                                       !- Skylight Construction Name
  ,                                       !- Tubular Daylight Dome Construction Name
  ;                                       !- Tubular Daylight Diffuser Construction Name

OS:Construction,
  {ffeb525e-fabf-4359-8b2f-bec6d1975f7c}, !- Handle
  Interior Door,                          !- Name
  ,                                       !- Surface Rendering Name
  {ae50953e-1941-4cdc-9cd9-2741ffa65317}; !- Layer 1

OS:StandardsInformation:Construction,
  {4762d527-aeec-484d-9813-4b846d1e2743}, !- Handle
  {ffeb525e-fabf-4359-8b2f-bec6d1975f7c}, !- Construction Name
  InteriorDoor,                           !- Intended Surface Type
  ;                                       !- Standards Construction Type

OS:Material,
  {ae50953e-1941-4cdc-9cd9-2741ffa65317}, !- Handle
  G05 25mm wood,                          !- Name
  MediumSmooth,                           !- Roughness
  0.0254,                                 !- Thickness {m}
  0.15,                                   !- Conductivity {W/m-K}
  608,                                    !- Density {kg/m3}
  1630,                                   !- Specific Heat {J/kg-K}
  0.9,                                    !- Thermal Absorptance
  0.5,                                    !- Solar Absorptance
  0.5;                                    !- Visible Absorptance

OS:Construction,
  {ead91c2f-4359-42f5-b36e-9a36c9253598}, !- Handle
  Interior Partition,                     !- Name
  ,                                       !- Surface Rendering Name
  {ae50953e-1941-4cdc-9cd9-2741ffa65317}; !- Layer 1

OS:StandardsInformation:Construction,
  {bbf8ba28-8bef-42c1-b5d6-7469584234ea}, !- Handle
  {ead91c2f-4359-42f5-b36e-9a36c9253598}, !- Construction Name
  InteriorPartition,                      !- Intended Surface Type
  ;                                       !- Standards Construction Type

OS:DefaultConstructionSet,
  {687d05db-8053-4a94-b114-53e0716a9896}, !- Handle
  189.1-2009 - CZ2 - Office,              !- Name
  {8edba1bd-b329-4c83-a9b8-09990e95b65e}, !- Default Exterior Surface Constructions Name
  {e18c1749-b591-41fb-9e64-177679114054}, !- Default Interior Surface Constructions Name
  {69098a8f-01d4-41f8-97e8-f3616bf95c30}, !- Default Ground Contact Surface Constructions Name
  {26c0a2ac-6869-41a8-85e0-493990988654}, !- Default Exterior SubSurface Constructions Name
  {31e1c75d-6ff4-480b-8189-458ca9a5f35c}, !- Default Interior SubSurface Constructions Name
  {ead91c2f-4359-42f5-b36e-9a36c9253598}, !- Interior Partition Construction Name
  ,                                       !- Space Shading Construction Name
  ,                                       !- Building Shading Construction Name
  ,                                       !- Site Shading Construction Name
  ;                                       !- Adiabatic Surface Construction Name

OS:DefaultSurfaceConstructions,
  {8edba1bd-b329-4c83-a9b8-09990e95b65e}, !- Handle
  Default Surface Constructions 4,        !- Name
  {78a5e5c5-806e-400a-a800-196f73e1d063}, !- Floor Construction Name
  {99407b2e-49f5-4dd2-a138-e5f57ad89854}, !- Wall Construction Name
  {6e592600-ac13-4db1-bf26-a5a95984aa4d}; !- Roof Ceiling Construction Name

OS:Construction,
  {99407b2e-49f5-4dd2-a138-e5f57ad89854}, !- Handle
  ASHRAE 189.1-2009 ExtWall Mass ClimateZone 2, !- Name
  ,                                       !- Surface Rendering Name
  {56962c43-17db-4226-8ddc-220e96c9d631}, !- Layer 1
  {4cc6a40e-03a3-48aa-95cb-72a4e9afb846}, !- Layer 2
  {9aee91bc-9ebe-405c-8a50-5030bc542822}, !- Layer 3
  {b6d8e415-7411-437a-ac2c-78a8b90db9d2}; !- Layer 4

OS:StandardsInformation:Construction,
  {85ebc66f-75e7-41c3-b466-fe2b2df44e89}, !- Handle
  {99407b2e-49f5-4dd2-a138-e5f57ad89854}, !- Construction Name
  ExteriorWall,                           !- Intended Surface Type
  Mass;                                   !- Standards Construction Type

OS:Material,
  {9aee91bc-9ebe-405c-8a50-5030bc542822}, !- Handle
  Wall Insulation [35],                   !- Name
  MediumRough,                            !- Roughness
  0.0452,                                 !- Thickness {m}
  0.0432,                                 !- Conductivity {W/m-K}
  91,                                     !- Density {kg/m3}
  836.999999999999,                       !- Specific Heat {J/kg-K}
  0.9,                                    !- Thermal Absorptance
  0.5,                                    !- Solar Absorptance
  0.5;                                    !- Visible Absorptance

OS:Construction,
  {6e592600-ac13-4db1-bf26-a5a95984aa4d}, !- Handle
  ASHRAE 189.1-2009 ExtRoof IEAD ClimateZone 2-5, !- Name
  ,                                       !- Surface Rendering Name
  {6710a532-69d6-4fff-84fd-c78074630b20}, !- Layer 1
  {5dcafaa7-3d40-49db-9ee5-cc3b2bb2278c}, !- Layer 2
  {14035dbf-33ad-4b63-a0f4-bc09dc3e2743}; !- Layer 3

OS:StandardsInformation:Construction,
  {27c0d4ca-5cef-498b-bf78-a2e0e38f4e08}, !- Handle
  {6e592600-ac13-4db1-bf26-a5a95984aa4d}, !- Construction Name
  ExteriorRoof,                           !- Intended Surface Type
  IEAD;                                   !- Standards Construction Type

OS:Material,
  {5dcafaa7-3d40-49db-9ee5-cc3b2bb2278c}, !- Handle
  Roof Insulation [21],                   !- Name
  MediumRough,                            !- Roughness
  0.2105,                                 !- Thickness {m}
  0.049,                                  !- Conductivity {W/m-K}
  265,                                    !- Density {kg/m3}
  836.800000000001,                       !- Specific Heat {J/kg-K}
  0.9,                                    !- Thermal Absorptance
  0.7,                                    !- Solar Absorptance
  0.7;                                    !- Visible Absorptance

OS:DefaultSurfaceConstructions,
  {e18c1749-b591-41fb-9e64-177679114054}, !- Handle
  Default Surface Constructions 5,        !- Name
  {4ee71df9-85c1-4a24-9be8-bee433f9e015}, !- Floor Construction Name
  {7ea68359-ad75-4d6c-8862-e2965b9ee3ab}, !- Wall Construction Name
  {edd9ecd3-4290-4d56-b5a9-ef02bf102418}; !- Roof Ceiling Construction Name

OS:DefaultSurfaceConstructions,
  {69098a8f-01d4-41f8-97e8-f3616bf95c30}, !- Handle
  Default Surface Constructions 6,        !- Name
  {78a5e5c5-806e-400a-a800-196f73e1d063}, !- Floor Construction Name
  {78a5e5c5-806e-400a-a800-196f73e1d063}, !- Wall Construction Name
  {78a5e5c5-806e-400a-a800-196f73e1d063}; !- Roof Ceiling Construction Name

OS:DefaultSubSurfaceConstructions,
  {26c0a2ac-6869-41a8-85e0-493990988654}, !- Handle
  Default Sub Surface Constructions 3,    !- Name
  {7a0f32f0-ed41-4458-b35f-782d54c4cf3c}, !- Fixed Window Construction Name
  {7a0f32f0-ed41-4458-b35f-782d54c4cf3c}, !- Operable Window Construction Name
  {f16a7fb7-d40d-43c5-9ad7-3bfe84654a03}, !- Door Construction Name
  ,                                       !- Glass Door Construction Name
  ,                                       !- Overhead Door Construction Name
  ,                                       !- Skylight Construction Name
  {ae4fa780-ed05-42e8-925d-8cfdef96ee27}, !- Tubular Daylight Dome Construction Name
  {ae4fa780-ed05-42e8-925d-8cfdef96ee27}; !- Tubular Daylight Diffuser Construction Name

OS:Construction,
  {7a0f32f0-ed41-4458-b35f-782d54c4cf3c}, !- Handle
  ASHRAE 189.1-2009 ExtWindow ClimateZone 2, !- Name
  ,                                       !- Surface Rendering Name
  {0df6dfac-0759-43e9-8314-9539c41eefda}; !- Layer 1

OS:StandardsInformation:Construction,
  {56d08b42-76df-4617-82fc-10413928e30e}, !- Handle
  {7a0f32f0-ed41-4458-b35f-782d54c4cf3c}, !- Construction Name
  ExteriorWindow,                         !- Intended Surface Type
  ;                                       !- Standards Construction Type

OS:WindowMaterial:Glazing,
  {0df6dfac-0759-43e9-8314-9539c41eefda}, !- Handle
  Theoretical Glass [197],                !- Name
  SpectralAverage,                        !- Optical Data Type
  ,                                       !- Window Glass Spectral Data Set Name