
Version,
  9.3;                                    !- Version Identifier

Timestep,
  6;                                      !- Number of Timesteps per Hour

LifeCycleCost:Parameters,
  Life Cycle Cost Parameters,             !- Name
  EndOfYear,                              !- Discounting Convention
  ConstantDollar,                         !- Inflation Approach
  0.03,                                   !- Real Discount Rate
  ,                                       !- Nominal Discount Rate
  ,                                       !- Inflation
  ,                                       !- Base Date Month
  2011,                                   !- Base Date Year
  ,                                       !- Service Date Month
  2011,                                   !- Service Date Year
  25,                                     !- Length of Study Period in Years
  ,                                       !- Tax rate
  None;                                   !- Depreciation Method

LifeCycleCost:UsePriceEscalation,
  U.S. Avg  Commercial-Electricity,       !- Name
  Electricity,                            !- Resource
  2011,                                   !- Escalation Start Year
  January,                                !- Escalation Start Month
  0.9838,                                 !- Year Escalation 1
  0.9730,                                 !- Year Escalation 2
  0.9632,                                 !- Year Escalation 3
  0.9611,                                 !- Year Escalation 4
  0.9571,                                 !- Year Escalation 5
  0.9553,                                 !- Year Escalation 6
  0.9539,                                 !- Year Escalation 7
  0.9521,                                 !- Year Escalation 8
  0.9546,                                 !- Year Escalation 9
  0.9550,                                 !- Year Escalation 10
  0.9553,                                 !- Year Escalation 11
  0.9564,                                 !- Year Escalation 12
  0.9575,                                 !- Year Escalation 13
  0.9596,                                 !- Year Escalation 14
  0.9618,                                 !- Year Escalation 15
  0.9614,                                 !- Year Escalation 16
  0.9618,                                 !- Year Escalation 17
  0.9618,                                 !- Year Escalation 18
  0.9593,                                 !- Year Escalation 19
  0.9589,                                 !- Year Escalation 20
  0.9607,                                 !- Year Escalation 21
  0.9625,                                 !- Year Escalation 22
  0.9650,                                 !- Year Escalation 23
  0.9708,                                 !- Year Escalation 24
  0.9751,                                 !- Year Escalation 25
  0.9762,                                 !- Year Escalation 26
  0.9766,                                 !- Year Escalation 27
  0.9766,                                 !- Year Escalation 28
  0.9769,                                 !- Year Escalation 29
  0.9773;                                 !- Year Escalation 30

LifeCycleCost:UsePriceEscalation,
  U.S. Avg  Commercial-Distillate Oil,    !- Name
  FuelOilNo1,                             !- Resource
  2011,                                   !- Escalation Start Year
  January,                                !- Escalation Start Month
  0.9714,                                 !- Year Escalation 1
  0.9730,                                 !- Year Escalation 2
  0.9942,                                 !- Year Escalation 3
  1.0164,                                 !- Year Escalation 4
  1.0541,                                 !- Year Escalation 5
  1.0928,                                 !- Year Escalation 6
  1.1267,                                 !- Year Escalation 7
  1.1580,                                 !- Year Escalation 8
  1.1792,                                 !- Year Escalation 9
  1.1967,                                 !- Year Escalation 10
  1.2200,                                 !- Year Escalation 11
  1.2333,                                 !- Year Escalation 12
  1.2566,                                 !- Year Escalation 13
  1.2709,                                 !- Year Escalation 14
  1.2826,                                 !- Year Escalation 15
  1.2985,                                 !- Year Escalation 16
  1.3102,                                 !- Year Escalation 17
  1.3250,                                 !- Year Escalation 18
  1.3261,                                 !- Year Escalation 19
  1.3282,                                 !- Year Escalation 20
  1.3324,                                 !- Year Escalation 21
  1.3356,                                 !- Year Escalation 22
  1.3431,                                 !- Year Escalation 23
  1.3510,                                 !- Year Escalation 24
  1.3568,                                 !- Year Escalation 25
  1.3606,                                 !- Year Escalation 26
  1.3637,                                 !- Year Escalation 27
  1.3674,                                 !- Year Escalation 28
  1.3706,                                 !- Year Escalation 29
  1.3743;                                 !- Year Escalation 30

LifeCycleCost:UsePriceEscalation,
  U.S. Avg  Commercial-Residual Oil,      !- Name
  FuelOilNo2,                             !- Resource
  2011,                                   !- Escalation Start Year
  January,                                !- Escalation Start Month
  0.8469,                                 !- Year Escalation 1
  0.8257,                                 !- Year Escalation 2
  0.8681,                                 !- Year Escalation 3
  0.8988,                                 !- Year Escalation 4
  0.9289,                                 !- Year Escalation 5
  0.9604,                                 !- Year Escalation 6
  0.9897,                                 !- Year Escalation 7
  1.0075,                                 !- Year Escalation 8
  1.0314,                                 !- Year Escalation 9
  1.0554,                                 !- Year Escalation 10
  1.0861,                                 !- Year Escalation 11
  1.1278,                                 !- Year Escalation 12
  1.1497,                                 !- Year Escalation 13
  1.1620,                                 !- Year Escalation 14
  1.1743,                                 !- Year Escalation 15
  1.1852,                                 !- Year Escalation 16
  1.1948,                                 !- Year Escalation 17
  1.2037,                                 !- Year Escalation 18
  1.2071,                                 !- Year Escalation 19
  1.2119,                                 !- Year Escalation 20
  1.2139,                                 !- Year Escalation 21
  1.2194,                                 !- Year Escalation 22
  1.2276,                                 !- Year Escalation 23
  1.2365,                                 !- Year Escalation 24
  1.2420,                                 !- Year Escalation 25
  1.2461,                                 !- Year Escalation 26
  1.2509,                                 !- Year Escalation 27
  1.2550,                                 !- Year Escalation 28
  1.2591,                                 !- Year Escalation 29
  1.2638;                                 !- Year Escalation 30

LifeCycleCost:UsePriceEscalation,
  U.S. Avg  Commercial-Natural gas,       !- Name
  NaturalGas,                             !- Resource
  2011,                                   !- Escalation Start Year
  January,                                !- Escalation Start Month
  0.9823,                                 !- Year Escalation 1
  0.9557,                                 !- Year Escalation 2
  0.9279,                                 !- Year Escalation 3
  0.9257,                                 !- Year Escalation 4
  0.9346,                                 !- Year Escalation 5
  0.9412,                                 !- Year Escalation 6
  0.9512,                                 !- Year Escalation 7
  0.9645,                                 !- Year Escalation 8
  0.9856,                                 !- Year Escalation 9
  1.0067,                                 !- Year Escalation 10
  1.0222,                                 !- Year Escalation 11
  1.0410,                                 !- Year Escalation 12
  1.0610,                                 !- Year Escalation 13
  1.0787,                                 !- Year Escalation 14
  1.0942,                                 !- Year Escalation 15
  1.1098,                                 !- Year Escalation 16
  1.1220,                                 !- Year Escalation 17
  1.1308,                                 !- Year Escalation 18
  1.1386,                                 !- Year Escalation 19
  1.1486,                                 !- Year Escalation 20
  1.1619,                                 !- Year Escalation 21
  1.1763,                                 !- Year Escalation 22
  1.1918,                                 !- Year Escalation 23
  1.2118,                                 !- Year Escalation 24
  1.2284,                                 !- Year Escalation 25
  1.2439,                                 !- Year Escalation 26
  1.2605,                                 !- Year Escalation 27
  1.2772,                                 !- Year Escalation 28
  1.2938,                                 !- Year Escalation 29
  1.3115;                                 !- Year Escalation 30

LifeCycleCost:UsePriceEscalation,
  U.S. Avg  Commercial-Coal,              !- Name
  Coal,                                   !- Resource
  2011,                                   !- Escalation Start Year
  January,                                !- Escalation Start Month
  0.9970,                                 !- Year Escalation 1
  1.0089,                                 !- Year Escalation 2
  1.0089,                                 !- Year Escalation 3
  0.9941,                                 !- Year Escalation 4
  0.9941,                                 !- Year Escalation 5
  1.0000,                                 !- Year Escalation 6
  1.0030,                                 !- Year Escalation 7
  1.0059,                                 !- Year Escalation 8
  1.0089,                                 !- Year Escalation 9
  1.0119,                                 !- Year Escalation 10
  1.0148,                                 !- Year Escalation 11
  1.0178,                                 !- Year Escalation 12
  1.0208,                                 !- Year Escalation 13
  1.0267,                                 !- Year Escalation 14
  1.0297,                                 !- Year Escalation 15
  1.0356,                                 !- Year Escalation 16
  1.0415,                                 !- Year Escalation 17
  1.0534,                                 !- Year Escalation 18
  1.0564,                                 !- Year Escalation 19
  1.0593,                                 !- Year Escalation 20
  1.0653,                                 !- Year Escalation 21
  1.0712,                                 !- Year Escalation 22
  1.0742,                                 !- Year Escalation 23
  1.0801,                                 !- Year Escalation 24
  1.0831,                                 !- Year Escalation 25
  1.0831,                                 !- Year Escalation 26
  1.0861,                                 !- Year Escalation 27
  1.0890,                                 !- Year Escalation 28
  1.0920,                                 !- Year Escalation 29
  1.0950;                                 !- Year Escalation 30

Building,
  Building 1,                             !- Name
  ,                                       !- North Axis {deg}
  ,                                       !- Terrain
  ,                                       !- Loads Convergence Tolerance Value {W}
  ,                                       !- Temperature Convergence Tolerance Value {deltaC}
  ,                                       !- Solar Distribution
  ,                                       !- Maximum Number of Warmup Days
  ;                                       !- Minimum Number of Warmup Days

Shading:Building:Detailed,
  Photovoltaic System,                    !- Name
  PV Shading Transmittance Schedule,      !- Transmittance Schedule Name
  ,                                       !- Number of Vertices
  500, 0, 0,                              !- X,Y,Z Vertex 1 {m}
  501, 0, 0,                              !- X,Y,Z Vertex 2 {m}
  501, 1, 0,                              !- X,Y,Z Vertex 3 {m}
  500, 1, 0;                              !- X,Y,Z Vertex 4 {m}

Zone,
  EXT-Thermal Zone 1,                     !- Name
  ,                                       !- Direction of Relative North {deg}
  6.096,                                  !- X Origin {m}
  0,                                      !- Y Origin {m}
  0,                                      !- Z Origin {m}
  ,                                       !- Type
  ,                                       !- Multiplier
  ,                                       !- Ceiling Height {m}
  ,                                       !- Volume {m3}
  ,                                       !- Floor Area {m2}
  ,                                       !- Zone Inside Convection Algorithm
  ;                                       !- Zone Outside Convection Algorithm

BuildingSurface:Detailed,
  Surface 10,                             !- Name
  Wall,                                   !- Surface Type
  InteriorConstruction,                   !- Construction Name
  EXT-Thermal Zone 1,                     !- Zone Name
  Surface,                                !- Outside Boundary Condition
  Surface 20,                             !- Outside Boundary Condition Object
  NoSun,                                  !- Sun Exposure
  NoWind,                                 !- Wind Exposure
  ,                                       !- View Factor to Ground
  ,                                       !- Number of Vertices
  0, 3.048, 3.048,                        !- X,Y,Z Vertex 1 {m}
  0, 3.048, 0,                            !- X,Y,Z Vertex 2 {m}
  -3.048, 3.048, 0,                       !- X,Y,Z Vertex 3 {m}
  -3.048, 3.048, 3.048;                   !- X,Y,Z Vertex 4 {m}

BuildingSurface:Detailed,
  Surface 11,                             !- Name
  Wall,                                   !- Surface Type
  ExternalWallConstruction,               !- Construction Name
  EXT-Thermal Zone 1,                     !- Zone Name
  Outdoors,                               !- Outside Boundary Condition
  ,                                       !- Outside Boundary Condition Object
  SunExposed,                             !- Sun Exposure
  WindExposed,                            !- Wind Exposure
  ,                                       !- View Factor to Ground
  ,                                       !- Number of Vertices
  0, 0, 3.048,                            !- X,Y,Z Vertex 1 {m}
  0, 0, 0,                                !- X,Y,Z Vertex 2 {m}
  0, 3.048, 0,                            !- X,Y,Z Vertex 3 {m}
  0, 3.048, 3.048;                        !- X,Y,Z Vertex 4 {m}

FenestrationSurface:Detailed,
  Sub Surface 6,                          !- Name
  Window,                                 !- Surface Type
  WindowsConstruction,                    !- Construction Name
  Surface 11,                             !- Building Surface Name
  ,                                       !- Outside Boundary Condition Object
  ,                                       !- View Factor to Ground
  ,                                       !- Frame and Divider Name
  ,                                       !- Multiplier
  ,                                       !- Number of Vertices
  0, 0.0254, 1.99986440677966,            !- X,Y,Z Vertex 1 {m}
  0, 0.0254, 0.76,                        !- X,Y,Z Vertex 2 {m}
  0, 3.0226, 0.76,                        !- X,Y,Z Vertex 3 {m}
  0, 3.0226, 1.99986440677966;            !- X,Y,Z Vertex 4 {m}

BuildingSurface:Detailed,
  Surface 12,                             !- Name
  Roof,                                   !- Surface Type
  RoofConstruction,                       !- Construction Name
  EXT-Thermal Zone 1,                     !- Zone Name
  Outdoors,                               !- Outside Boundary Condition
  ,                                       !- Outside Boundary Condition Object
  SunExposed,                             !- Sun Exposure
  WindExposed,                            !- Wind Exposure
  ,                                       !- View Factor to Ground
  ,                                       !- Number of Vertices
  0, 0, 3.048,                            !- X,Y,Z Vertex 1 {m}
  0, 3.048, 3.048,                        !- X,Y,Z Vertex 2 {m}
  -3.048, 3.048, 3.048,                   !- X,Y,Z Vertex 3 {m}
  -3.048, 0, 3.048;                       !- X,Y,Z Vertex 4 {m}

BuildingSurface:Detailed,
  Surface 7,                              !- Name
  Floor,                                  !- Surface Type
  SlabConstruction,                       !- Construction Name
  EXT-Thermal Zone 1,                     !- Zone Name
  Ground,                                 !- Outside Boundary Condition
  ,                                       !- Outside Boundary Condition Object
  NoSun,                                  !- Sun Exposure
  NoWind,                                 !- Wind Exposure
  ,                                       !- View Factor to Ground
  ,                                       !- Number of Vertices
  0, 3.048, 0,                            !- X,Y,Z Vertex 1 {m}
  0, 0, 0,                                !- X,Y,Z Vertex 2 {m}
  -3.048, 0, 0,                           !- X,Y,Z Vertex 3 {m}
  -3.048, 3.048, 0;                       !- X,Y,Z Vertex 4 {m}

BuildingSurface:Detailed,
  Surface 8,                              !- Name
  Wall,                                   !- Surface Type
  ExternalWallConstruction,               !- Construction Name
  EXT-Thermal Zone 1,                     !- Zone Name
  Outdoors,                               !- Outside Boundary Condition
  ,                                       !- Outside Boundary Condition Object
  SunExposed,                             !- Sun Exposure
  WindExposed,                            !- Wind Exposure
  ,                                       !- View Factor to Ground
  ,                                       !- Number of Vertices
  -3.048, 0, 3.048,                       !- X,Y,Z Vertex 1 {m}
  -3.048, 0, 0,                           !- X,Y,Z Vertex 2 {m}
  0, 0, 0,                                !- X,Y,Z Vertex 3 {m}
  0, 0, 3.048;                            !- X,Y,Z Vertex 4 {m}

FenestrationSurface:Detailed,
  Sub Surface 7,                          !- Name
  Window,                                 !- Surface Type
  WindowsConstruction,                    !- Construction Name
  Surface 8,                              !- Building Surface Name
  ,                                       !- Outside Boundary Condition Object
  ,                                       !- View Factor to Ground
  ,                                       !- Frame and Divider Name
  ,                                       !- Multiplier
  ,                                       !- Number of Vertices
  -3.0226, 0, 1.99986440677966,           !- X,Y,Z Vertex 1 {m}
  -3.0226, 0, 0.76,                       !- X,Y,Z Vertex 2 {m}
  -0.0254000000000003, 0, 0.76,           !- X,Y,Z Vertex 3 {m}
  -0.0254000000000003, 0, 1.99986440677966; !- X,Y,Z Vertex 4 {m}

BuildingSurface:Detailed,
  Surface 9,                              !- Name
  Wall,                                   !- Surface Type
  InteriorConstruction Reversed,          !- Construction Name
  EXT-Thermal Zone 1,                     !- Zone Name
  Surface,                                !- Outside Boundary Condition
  Surface 3,                              !- Outside Boundary Condition Object
  NoSun,                                  !- Sun Exposure
  NoWind,                                 !- Wind Exposure
  ,                                       !- View Factor to Ground
  ,                                       !- Number of Vertices
  -3.048, 3.048, 3.048,                   !- X,Y,Z Vertex 1 {m}
  -3.048, 3.048, 0,                       !- X,Y,Z Vertex 2 {m}
  -3.048, 0, 0,                           !- X,Y,Z Vertex 3 {m}
  -3.048, 0, 3.048;                       !- X,Y,Z Vertex 4 {m}

InternalMass,
  Internal Mass 1,                        !- Name
  ChilledCeilingConstruction,             !- Construction Name
  EXT-Thermal Zone 1,                     !- Zone or ZoneList Name
  7.4322432;                              !- Surface Area {m2}

People,
  People 1,                               !- Name
  EXT-Thermal Zone 1,                     !- Zone or ZoneList Name
  PeopleSchedule,                         !- Number of People Schedule Name
  People/Area,                            !- Number of People Calculation Method
  ,                                       !- Number of People
  3,                                      !- People per Zone Floor Area {person/m2}
  ,                                       !- Zone Floor Area per Person {m2/person}
  0.3,                                    !- Fraction Radiant
  ,                                       !- Sensible Heat Fraction
  PeopleActivitySchedule;                 !- Activity Level Schedule Name

Lights,
  Lights 1,                               !- Name
  EXT-Thermal Zone 1,                     !- Zone or ZoneList Name
  LightSchedule,                          !- Schedule Name
  Watts/Area,                             !- Design Level Calculation Method
  ,                                       !- Lighting Level {W}
  2,                                      !- Watts per Zone Floor Area {W/m2}
  ,                                       !- Watts per Person {W/person}
  ,                                       !- Return Air Fraction
  ,                                       !- Fraction Radiant
  ,                                       !- Fraction Visible
  1,                                      !- Fraction Replaceable
  General;                                !- End-Use Subcategory

ScheduleTypeLimits,
  Fractional,                             !- Name
  0,                                      !- Lower Limit Value {BasedOnField A3}
  1,                                      !- Upper Limit Value {BasedOnField A3}
  Continuous;                             !- Numeric Type

Schedule:Day:Interval,
  LightSchedule Schedule WeekDay,         !- Name
  Fractional,                             !- Schedule Type Limits Name
  No,                                     !- Interpolate to Timestep
  00:15,                                  !- Time 1 {hh:mm}
  20,                                     !- Value Until Time 1
  00:30,                                  !- Time 2 {hh:mm}
  20,                                     !- Value Until Time 2
  00:45,                                  !- Time 3 {hh:mm}
  20,                                     !- Value Until Time 3
  01:00,                                  !- Time 4 {hh:mm}
  20,                                     !- Value Until Time 4
  01:15,                                  !- Time 5 {hh:mm}
  20,                                     !- Value Until Time 5
  01:30,                                  !- Time 6 {hh:mm}
  20,                                     !- Value Until Time 6
  01:45,                                  !- Time 7 {hh:mm}
  20,                                     !- Value Until Time 7
  02:00,                                  !- Time 8 {hh:mm}
  20,                                     !- Value Until Time 8
  02:15,                                  !- Time 9 {hh:mm}
  20,                                     !- Value Until Time 9
  02:30,                                  !- Time 10 {hh:mm}
  20,                                     !- Value Until Time 10
  02:45,                                  !- Time 11 {hh:mm}
  20,                                     !- Value Until Time 11
  03:00,                                  !- Time 12 {hh:mm}
  20,                                     !- Value Until Time 12
  03:15,                                  !- Time 13 {hh:mm}
  20,                                     !- Value Until Time 13
  03:30,                                  !- Time 14 {hh:mm}
  20,                                     !- Value Until Time 14
  03:45,                                  !- Time 15 {hh:mm}
  20,                                     !- Value Until Time 15
  04:00,                                  !- Time 16 {hh:mm}
  20,                                     !- Value Until Time 16
  04:15,                                  !- Time 17 {hh:mm}
  20,                                     !- Value Until Time 17
  04:30,                                  !- Time 18 {hh:mm}
  20,                                     !- Value Until Time 18
  04:45,                                  !- Time 19 {hh:mm}
  20,                                     !- Value Until Time 19
  05:00,                                  !- Time 20 {hh:mm}
  20,                                     !- Value Until Time 20
  05:15,                                  !- Time 21 {hh:mm}
  20,                                     !- Value Until Time 21
  05:30,                                  !- Time 22 {hh:mm}
  20,                                     !- Value Until Time 22
  05:45,                                  !- Time 23 {hh:mm}
  20,                                     !- Value Until Time 23
  06:00,                                  !- Time 24 {hh:mm}
  20,                                     !- Value Until Time 24
  06:15,                                  !- Time 25 {hh:mm}
  20,                                     !- Value Until Time 25
  06:30,                                  !- Time 26 {hh:mm}
  20,                                     !- Value Until Time 26
  06:45,                                  !- Time 27 {hh:mm}
  20,                                     !- Value Until Time 27
  07:00,                                  !- Time 28 {hh:mm}
  20,                                     !- Value Until Time 28
  07:15,                                  !- Time 29 {hh:mm}
  20,                                     !- Value Until Time 29
  07:30,                                  !- Time 30 {hh:mm}
  20,                                     !- Value Until Time 30
  07:45,                                  !- Time 31 {hh:mm}
  20,                                     !- Value Until Time 31
  08:00,                                  !- Time 32 {hh:mm}
  20,                                     !- Value Until Time 32
  08:15,                                  !- Time 33 {hh:mm}
  20,                                     !- Value Until Time 33
  08:30,                                  !- Time 34 {hh:mm}
  20,                                     !- Value Until Time 34
  08:45,                                  !- Time 35 {hh:mm}
  20,                                     !- Value Until Time 35
  09:00,                                  !- Time 36 {hh:mm}
  20,                                     !- Value Until Time 36
  09:15,                                  !- Time 37 {hh:mm}
  20,                                     !- Value Until Time 37
  09:30,                                  !- Time 38 {hh:mm}
  20,                                     !- Value Until Time 38
  09:45,                                  !- Time 39 {hh:mm}
  20,                                     !- Value Until Time 39
  10:00,                                  !- Time 40 {hh:mm}
  20,                                     !- Value Until Time 40
  10:15,                                  !- Time 41 {hh:mm}
  20,                                     !- Value Until Time 41
  10:30,                                  !- Time 42 {hh:mm}
  20,                                     !- Value Until Time 42
  10:45,                                  !- Time 43 {hh:mm}
  20,                                     !- Value Until Time 43
  11:00,                                  !- Time 44 {hh:mm}
  20,                                     !- Value Until Time 44
  11:15,                                  !- Time 45 {hh:mm}
  20,                                     !- Value Until Time 45
  11:30,                                  !- Time 46 {hh:mm}
  20,                                     !- Value Until Time 46
  11:45,                                  !- Time 47 {hh:mm}
  20,                                     !- Value Until Time 47
  12:00,                                  !- Time 48 {hh:mm}
  20,                                     !- Value Until Time 48
  12:15,                                  !- Time 49 {hh:mm}
  20,                                     !- Value Until Time 49
  12:30,                                  !- Time 50 {hh:mm}
  20,                                     !- Value Until Time 50
  12:45,                                  !- Time 51 {hh:mm}
  20,                                     !- Value Until Time 51
  13:00,                                  !- Time 52 {hh:mm}
  20,                                     !- Value Until Time 52
  13:15,                                  !- Time 53 {hh:mm}
  20,                                     !- Value Until Time 53
  13:30,                                  !- Time 54 {hh:mm}
  20,                                     !- Value Until Time 54